720   
C 6.903158 -0.8842462 -10.491306
C 5.7604594 -1.2776592 -11.121495
C 5.0892777 -0.15830575 -11.5141735
C 5.817183 0.9269849 -11.126719
C 6.938253 0.47817805 -10.494509
C 12.475066 -1.4220548 0.9236129
C 12.544024 -1.0054113 -0.37239286
C 12.579123 0.35697377 -0.37555608
C 12.531806 0.78267926 0.91834724
C 12.467582 -0.3167633 1.7213128
C 4.4386573 -11.283188 -3.389853
C 5.214005 -10.623517 -4.2962637
C 6.356656 -10.230126 -3.6661155
C 6.2876644 -10.646636 -2.3701642
C 5.102459 -11.297371 -2.199414
C -6.1763234 -5.6580324 -9.39907
C -4.9862366 -5.6901374 -10.062926
C -4.31517 -6.8097363 -9.670047
C -5.0903635 -7.4691534 -8.763652
C -6.2405906 -6.757573 -8.5960865
C -4.700392 7.6796856 -8.799521
C -3.9603918 6.9766617 -9.702766
C -4.688164 5.891546 -10.090252
C -5.878255 5.9236608 -9.426536
C -5.8857775 7.0288625 -8.628741
C 6.826682 10.297704 -2.4198606
C 6.8741064 9.872146 -3.713681
C 5.7530465 10.32075 -4.345974
C 5.0128093 11.02371 -3.44276
C 5.6765766 11.009378 -2.2523153
C -6.903136 0.8843257 10.491312
C -6.9381866 -0.47825983 10.494547
C -5.817285 -0.9268925 11.126708
C -5.089272 0.15831618 11.514211
C -5.760542 1.2776611 11.121482
C -12.46752 0.31685132 -1.7213238
C -12.531845 -0.7826676 -0.91827
C -12.579126 -0.35700324 0.3755365
C -12.544 1.00542 0.37229672
C -12.475101 1.421886 -0.9234955
C -5.676589 -11.009337 2.2522962
C -5.0128016 -11.023741 3.4426873
C -5.7530556 -10.320669 4.3460355
C -6.8740554 -9.872116 3.7137337
C -6.8266635 -10.297705 2.4199073
C 5.885738 -7.028773 8.628847
C 5.878048 -5.9237757 9.426532
C 4.688323 -5.8916306 10.090184
C 3.9601977 -6.976746 9.70284
C 4.700505 -7.6796584 8.799471
C 6.240492 6.7575965 8.596165
C 5.0904937 7.46918 8.763639
C 4.3150177 6.80968 9.670165
C 4.98641 5.690192 10.062816
C 6.176245 5.658095 9.399081
C -5.102388 11.297371 2.199422
C -6.2876744 10.6466055 2.3701851
C -6.3565245 10.230193 3.6661222
C -5.21402 10.623516 4.296306
C -4.438617 11.283187 3.389856
C 7.1831546 -3.0014894 -9.588688
C 7.204121 -5.0290756 -8.348009
C 7.0908747 -6.9664664 -6.9331236
C 6.846696 -8.755277 -5.3866935
C 11.902035 -3.1028528 -1.1237259
C 10.837254 -5.1071405 -1.8308663
C 9.554567 -7.019443 -2.513719
C 8.092774 -8.782081 -3.1514122
C 12.022765 -1.0383425 -2.6313896
C 11.075919 -1.0255421 -4.811725
C 9.906526 -1.0004863 -6.9094825
C 8.549924 -0.9638621 -8.8611145
C 8.812766 -3.1418145 -7.756409
C 10.142543 -3.188355 -5.692291
C 11.199258 -3.1930735 -3.4753344
C 8.796707 -5.194714 -6.4087915
C 10.023648 -5.2210875 -4.2077875
C 8.581526 -7.095614 -4.868917
C 11.3686495 -3.837026 -2.1923614
C 10.189168 -5.803181 -2.8877356
C 8.812533 -7.6478934 -3.5530195
C 7.202625 -9.2764225 -4.1263666
C 11.48823 -1.792109 -3.685778
C 10.424998 -1.7704417 -5.8327303
C 9.15795 -1.7419188 -7.865961
C 7.6472917 -1.6734611 -9.678571
C 7.8041797 -3.7603977 -8.58662
C 9.3027935 -3.8692672 -6.638439
C 10.498734 -3.8950336 -4.4930873
C 7.755361 -5.750948 -7.2537613
C 9.186896 -5.850908 -5.191316
C 7.578374 -7.6214356 -5.76701
C 12.236103 -1.7722094 -1.4467623
C 5.9716926 -3.4185398 -10.256743
C 5.9826183 -5.4496236 -9.021714
C 5.8693347 -7.3870716 -7.606751
C 5.6353226 -9.1723585 -6.0547924
C -2.457023 -8.046453 -9.04253
C -0.5066018 -9.012507 -8.086978
C 1.4689668 -9.803104 -6.9729576
C 3.409696 -10.394333 -5.734243
C -2.3362584 -5.9819655 -10.550252
C -0.26797238 -4.9308877 -11.067769
C 1.8207703 -3.7840528 -11.3687
C 3.8666835 -2.5761192 -11.44387
C 3.9576616 -4.8131943 -10.433902
C 1.8402781 -6.046568 -10.27094
C -0.3048765 -7.1536727 -9.819835
C 3.9130638 -6.8760104 -9.102081
C 1.7215043 -8.079333 -8.786378
C 3.726604 -8.767025 -7.546442
C -1.056684 -8.114733 -9.044875
C 0.91264194 -8.996842 -8.003732
C 2.8797483 -9.690416 -6.8247924
C 4.7657857 -10.115367 -5.4702253
C -0.9371405 -6.0697746 -10.538286
C 1.1484274 -4.9642415 -10.9486685
C 3.225351 -3.7845151 -11.137756
C 5.210425 -2.5124645 -11.022466
C 5.3102593 -4.618994 -9.962028
C 3.2443602 -5.955165 -9.979668
C 1.1081673 -7.1279426 -9.671984
C 5.259922 -6.609917 -8.630023
C 3.1284535 -7.936646 -8.532575
C 5.0843554 -8.479968 -7.142442
C -2.9860673 -7.0125995 -9.841864
C 3.155278 -1.3893448 -11.860164
C 1.1032898 -2.5869563 -11.788613
C -0.9855168 -3.7337508 -11.487768
C -3.0478313 -4.7950253 -10.966661
C -5.023975 3.6716838 -10.668996
C -5.193876 1.309337 -10.871495
C -5.2556314 -1.0916426 -10.865844
C -5.207562 -3.4586535 -10.6521435
C -2.7982364 4.8937225 -10.989553
C -0.7934768 3.7254174 -11.505285
C 1.2334425 2.471166 -11.800533
C 3.2211056 1.1691023 -11.866195
C 1.1061063 -0.056987677 -12.102468
C -0.9632668 1.2570552 -11.955371
C -3.0302746 2.5024257 -11.500094
C -1.0282074 -1.2620804 -11.949455
C -3.1548595 0.053752422 -11.639737
C -3.1564481 -2.3974779 -11.488501
C -4.418172 2.4812093 -11.0950165
C -4.5358496 0.09009929 -11.191686
C -4.5412087 -2.303406 -11.083663
C -4.41744 -4.6257277 -10.679166
C -2.2135348 3.691564 -11.41261
C -0.18846957 2.4769726 -11.817977
C 1.8257326 1.192364 -12.00089
C 3.7791517 -0.12541448 -11.859904
C 1.7604507 -1.3418081 -11.994853
C -0.31402546 -0.020708336 -12.061638
C -2.3871255 1.2620075 -11.759767
C -0.31702897 -2.5203393 -11.806102
C -2.4502087 -1.1935954 -11.753947
C -2.401892 -3.6270616 -11.395223
C -4.175031 4.796038 -10.701595
C 3.9926543 2.3194273 -11.455496
C 2.0115743 3.631303 -11.3863325
C -0.015354229 4.885415 -11.091113
C -2.0268142 6.0439825 -10.578813
C 3.9391456 10.17788 -5.7830596
C 1.9704145 9.681323 -7.0193157
C -0.043196473 8.98813 -8.129784
C -2.0409145 8.119156 -9.080955
C 6.0989323 8.841496 -6.0975957
C 6.24056 7.0392027 -7.641115
C 6.2538056 5.0918612 -9.046749
C 6.138373 3.058238 -10.272171
C 4.1986475 4.5536895 -10.456197
C 4.2603116 6.622407 -9.134188
C 4.171711 8.527828 -7.5875096
C 2.1476574 5.8950257 -10.299333
C 2.133737 7.938208 -8.824472
C 0.062338557 7.1130724 -9.853809
C 3.3737147 9.497054 -6.87022
C 1.3732413 8.900122 -8.045974
C -0.6388914 8.115485 -9.083273
C -2.6225445 7.1104536 -9.875223
C 5.5130715 8.1733 -7.1818285
C 5.592186 6.289579 -8.660522
C 5.5396748 4.2925496 -9.98309
C 5.3315167 2.1888142 -11.033573
C 3.4143884 3.560933 -11.155144
C 3.545272 5.733099 -10.007265
C 3.5315413 7.7247753 -8.569644
C 1.4010452 4.8468323 -10.971806
C 1.4721336 7.0157957 -9.705372
C -0.624864 6.0601416 -10.566961
C 5.2792034 9.830801 -5.5173683
C 8.587149 0.48072466 -8.864485
C 9.944095 0.4567865 -6.9128857
C 11.113407 0.4315514 -4.8152165
C 12.059918 0.40607548 -2.63477
C 8.533429 8.339133 -3.192083
C 9.902624 6.506722 -2.5458477
C 11.085449 4.5340977 -1.853697
C 12.045816 2.481041 -1.1369208
C 7.2873545 8.365938 -5.427285
C 7.4391856 6.559563 -6.965113
C 7.4524813 4.612089 -8.370837
C 7.326979 2.582503 -9.601892
C 8.961812 2.647461 -7.770108
C 9.0516 4.704798 -6.432213
C 8.934617 6.6215954 -4.9014683
C 10.292488 2.635249 -5.7061853
C 10.2785015 4.6784863 -4.231272
C 11.34823 2.5961843 -3.4892128
C 9.193999 7.1674557 -3.5880706
C 10.473877 5.2576213 -2.914007
C 11.550723 3.2367613 -2.209129
C 12.310896 1.1335094 -1.4537423
C 7.9597273 7.1940074 -5.802141
C 8.039928 5.30991 -7.2801228
C 7.9861574 3.3133228 -8.603402
C 7.722051 1.2320292 -9.685473
C 9.234447 1.2312988 -7.873006
C 9.488674 3.3541918 -6.6555843
C 9.475132 5.3459225 -5.2178125
C 10.501573 1.2042347 -5.839733
C 10.684723 3.3284624 -4.510139
C 11.564757 1.181248 -3.6927652
C 7.6698713 8.873926 -4.1693134
C 11.828889 -3.5445325 0.25025752
C 10.763527 -5.5523496 -0.4453407
C 9.480855 -7.4647627 -1.1281056
C 8.019532 -9.223699 -1.7776555
C 6.316663 -8.234783 6.696082
C 6.51966 -9.16348 4.517256
C 6.6030374 -9.913499 2.237052
C 6.5640187 -10.46221 -0.07557427
C 7.683461 -6.197088 7.423559
C 9.222009 -5.134789 5.9556236
C 10.587996 -3.972433 4.3583426
C 11.740123 -2.7454243 2.6798139
C 10.906227 -4.9625974 2.03078
C 9.641527 -6.214263 3.723385
C 8.11853 -7.334566 5.2905965
C 9.728939 -7.001084 1.3310865
C 8.295787 -8.220563 3.0070107
C 8.288533 -8.865158 0.6372411
C 7.054275 -8.289033 5.5049486
C 7.1954565 -9.131841 3.266608
C 7.220306 -9.783603 0.9611453
C 7.05569 -10.164497 -1.3626478
C 8.408042 -6.2707047 6.225616
C 9.865169 -5.1514874 4.687909
C 11.13025 -3.9542964 3.0425944
C 12.089082 -2.6601248 1.3167995
C 11.218201 -4.745867 0.6358701
C 10.133173 -6.1030545 2.377817
C 8.736115 -7.291844 4.011398
C 10.038687 -6.7125177 -0.058017537
C 8.82133 -8.058939 1.6794454
C 8.662113 -8.556764 -0.7246918
C 6.728581 -7.2215676 7.5849895
C 11.866188 2.1503885 2.6682222
C 10.778908 3.4430897 4.3406487
C 9.474676 4.6817036 5.932364
C 7.992893 5.828828 7.3951
C 7.09345 10.110226 -0.12433642
C 7.10441 9.571211 2.1909091
C 6.9829 8.83728 4.474592
C 6.7326074 7.9307327 6.657714
C 8.48329 8.790304 -1.8202714
C 9.852145 6.961691 -1.1622869
C 11.034857 4.9891405 -0.47031897
C 11.9956455 2.9324024 0.23485515
C 11.147377 4.4044933 2.008567
C 10.076415 6.49749 1.2991133
C 8.733644 8.43001 0.5963651
C 9.948957 5.727558 3.6950784
C 8.708045 7.7971168 2.9689941
C 8.485733 6.932248 5.2567177
C 7.714261 9.403542 0.91564745
C 7.6561894 8.76491 3.2241702
C 7.472056 7.9411464 5.4664893
C 7.092259 6.9015512 7.551556
C 9.09075 8.096346 -0.76420814
C 10.370624 6.1869364 -0.08870262
C 11.447515 4.1654983 0.6147864
C 12.21009 2.0409849 1.3056753
C 11.3192625 3.3908615 3.0252724
C 10.433927 5.585004 2.350083
C 9.224409 7.6023235 1.6423465
C 10.117685 4.659348 4.6646442
C 9.100144 6.851734 3.9779837
C 8.720346 5.859192 6.1969275
C 7.5690494 9.78152 -1.4099231
C 11.732143 -1.5734943 3.5256076
C 10.57985 -2.7906563 5.2114635
C 9.213849 -3.9530516 6.8087234
C 7.6752844 -5.0256214 8.269407
C 6.4691916 3.4246726 9.948421
C 6.5279865 1.0574119 10.156163
C 6.4661403 -1.3435957 10.161925
C 6.285471 -3.7057614 9.965385
C 7.924742 4.663141 8.246371
C 9.405907 3.5060153 6.790979
C 10.710089 2.2673628 5.1994643
C 11.797959 0.9847529 3.5196097
C 10.874167 -0.26704177 5.420215
C 9.674103 1.028303 7.127031
C 8.212569 2.2607627 8.668337
C 9.609266 -1.4907763 7.1330013
C 8.240871 -0.19127572 8.802928
C 8.086296 -2.6390865 8.680103
C 7.1382813 2.2329457 9.635084
C 7.1342015 -0.16053385 9.742348
C 7.0152254 -2.551609 9.646328
C 6.7126994 -4.8647704 9.28605
C 8.579979 3.4597652 7.9492054
C 9.977355 2.2588096 6.417644
C 11.179025 0.99156076 4.7773256
C 12.072972 -0.30377257 3.0178668
C 11.1137905 -1.5426034 4.7833033
C 10.093173 -0.24415737 6.606919
C 8.75928 1.0227047 8.234806
C 9.848768 -2.7386518 6.429441
C 8.696102 -1.432836 8.240541
C 8.391725 -3.858913 7.9664416
C 6.9550667 4.556945 9.26375
C 2.5876591 -11.093686 -4.7732334
C 0.639789 -10.508429 -6.0037646
C -1.3355651 -9.717706 -7.1177416
C -3.2788637 -8.745564 -8.081655
C -5.8742943 -10.864567 -0.053383756
C -5.8748507 -10.331934 -2.3700962
C -5.7533507 -9.598036 -4.6537156
C -5.513357 -8.685038 -6.835369
C -3.7693958 -11.707074 1.1337106
C -1.7131 -11.997733 -0.023161808
C 0.3838026 -12.0545 -1.1928238
C 2.4580822 -11.875677 -2.3398879
C 0.43271455 -11.569624 -3.6951084
C -1.7194253 -11.668387 -2.5163145
C -3.8467052 -11.453738 -1.3081454
C -1.5919303 -10.898388 -4.912256
C -3.7920198 -10.838821 -3.6850772
C -3.5986698 -9.956034 -5.968581
C -5.2036743 -10.957036 -1.2811558
C -5.1442776 -10.319149 -3.5898385
C -4.9615116 -9.494556 -5.8319693
C -4.639151 -8.419424 -7.908663
C -3.1186981 -11.791463 -0.10539055
C -1.0326703 -11.964685 -1.2710917
C 1.0601286 -11.904515 -2.4362211
C 3.1128132 -11.521954 -3.5371232
C 1.1882992 -11.129896 -4.846601
C -0.9812173 -11.433812 -3.7265558
C -3.1258411 -11.375805 -2.5303354
C -0.77978575 -10.437118 -6.02445
C -3.001537 -10.625237 -4.8659697
C -2.748333 -9.554398 -7.0665193
C -5.115854 -11.299376 1.0528115
C 3.1619391 -11.89075 -1.0777205
C 1.0937148 -12.069712 0.08029851
C -1.0033127 -12.013035 1.2498388
C -3.065497 -11.72229 2.3957796
C 2.8257725 -8.864419 8.123278
C 0.8348112 -9.739847 7.163822
C -1.178797 -10.433081 6.053323
C -3.154271 -10.923202 4.825308
C 5.0601015 -8.924832 6.876969
C 5.2524443 -9.859263 4.6998134
C 5.335784 -10.6092415 2.4196744
C 5.307624 -11.152031 0.10559994
C 3.252472 -11.630183 1.3628873
C 3.2298517 -11.001984 3.7368605
C 3.0824676 -10.09968 6.0159554
C 1.1171272 -11.729359 2.571818
C 1.0297468 -10.942487 4.96396
C -1.0268428 -11.5144205 3.7497716
C 2.2539704 -9.649425 7.112244
C 0.2425824 -10.434724 6.0739617
C -1.7586632 -11.030863 4.899196
C -3.701041 -11.329641 3.5913508
C 4.467297 -9.709388 5.877631
C 4.60713 -10.552922 3.6394117
C 4.633395 -11.203952 1.3336945
C 4.52775 -11.552415 -0.9985957
C 2.5080197 -11.935684 0.16159709
C 2.536875 -11.509456 2.5844996
C 2.4516377 -10.742397 4.916737
C 0.41602618 -11.995802 1.3279054
C 0.392199 -11.451327 3.780931
C -1.6707133 -11.822514 2.4924827
C 4.200802 -8.609298 7.949219
C -6.469339 -3.4246087 -9.948324
C -6.528193 -1.0573462 -10.156108
C -6.4663644 1.3436314 -10.161757
C -6.2858143 3.7056904 -9.965244
C -11.732152 1.573704 -3.5256157
C -10.5799 2.790728 -5.2114553
C -9.213947 3.9530542 -6.8086867
C -7.6754203 5.025505 -8.269291
C -11.798045 -0.98459965 -3.519484
C -10.710127 -2.2673619 -5.1993365
C -9.40596 -3.5058937 -6.7909517
C -7.924895 -4.6629767 -8.246336
C -8.212702 -2.2606187 -8.668181
C -9.674253 -1.0281785 -7.126791
C -10.874204 0.26713353 -5.420137
C -8.241044 0.19134067 -8.802753
C -9.609314 1.4908874 -7.1328816
C -8.086535 2.6391737 -8.679857
C -11.113739 1.5425819 -4.7833624
C -9.848689 2.7386 -6.4295063
C -8.39153 3.8589082 -7.9665475
C -6.7124624 4.8648434 -9.286112
C -11.178947 -0.9915723 -4.777409
C -9.977242 -2.258843 -6.417754
C -8.579911 -3.4599369 -7.949198
C -6.954958 -4.5570097 -9.263812
C -7.138058 -2.2329822 -9.635197
C -8.759101 -1.0227201 -8.234941
C -10.093031 0.24394365 -6.6070056
C -7.134044 0.16050945 -9.742487
C -8.69597 1.4328322 -8.240718
C -7.0149927 2.551572 -9.6465025
C -12.072921 0.30347165 -3.0178764
C -7.9929056 -5.8289595 -7.395028
C -9.474576 -4.6817465 -5.932482
C -10.778803 -3.4431221 -4.340808
C -11.866132 -2.1504703 -2.6682415
C -8.483256 -8.790336 1.8202344
C -9.852129 -6.961741 1.162283
C -11.034876 -4.9891706 0.47027102
C -11.995634 -2.932344 -0.23485804
C -7.093466 -10.110235 0.12437861
C -7.1044207 -9.5712595 -2.1907866
C -6.9828906 -8.837341 -4.4744725
C -6.732615 -7.9307513 -6.6576424
C -8.485635 -6.9323425 -5.2568383
C -8.707924 -7.797191 -2.9690366
C -8.733701 -8.429947 -0.59636456
C -9.948879 -5.727561 -3.6951427
C -10.076434 -6.497548 -1.2991
C -11.147338 -4.404505 -2.0086253
C -9.09071 -8.096294 0.76432216
C -10.370635 -6.186886 0.08867416
C -11.447546 -4.165498 -0.61479133
C -12.21009 -2.041025 -1.305625
C -7.7142878 -9.403582 -0.9157855
C -7.6561832 -8.764831 -3.2242115
C -7.472093 -7.941065 -5.466483
C -7.092156 -6.9014945 -7.5515647
C -8.72037 -5.859062 -6.1969643
C -9.100167 -6.8516927 -3.9778285
C -9.224399 -7.602352 -1.6422791
C -10.117791 -4.6592736 -4.664504
C -10.434037 -5.5848913 -2.350025
C -11.319267 -3.3909116 -3.0250692
C -7.5690637 -9.781469 1.4099555
C -2.825592 8.864414 -8.123286
C -0.8347973 9.739828 -7.1637945
C 1.1788499 10.43307 -6.0533032
C 3.1543498 10.923121 -4.8254223
C -3.1620114 11.890744 1.0778955
C -1.0937568 12.069754 -0.08007818
C 1.0032359 12.012988 -1.2498063
C 3.0655077 11.722282 -2.3957717
C -5.307603 11.15203 -0.105532855
C -5.3358703 10.609213 -2.4195793
C -5.2525263 9.859205 -4.6997485
C -5.060102 8.924794 -6.87702
C -3.0825162 10.099632 -6.0159893
C -3.229907 11.002017 -3.7367697
C -3.2526047 11.630157 -1.362712
C -1.0297517 10.942506 -4.96393
C -1.117222 11.72936 -2.5715997
C 1.0268621 11.514468 -3.7497244
C -2.5078795 11.93564 -0.16177446
C -0.41587284 11.995829 -1.3280746
C 1.6707933 11.822503 -2.4925373
C 3.7009895 11.329686 -3.591302
C -4.6332645 11.204007 -1.3338103
C -4.607081 10.55297 -3.6394813
C -4.4672227 9.709416 -5.8776736
C -4.200877 8.609269 -7.949176
C -2.2540627 9.649459 -7.112189
C -2.4515152 10.742374 -4.9167285
C -2.5367303 11.509419 -2.584707
C -0.24256662 10.434752 -6.0739865
C -0.3921282 11.451385 -3.7809336
C 1.7586604 11.030905 -4.899156
C -4.5277395 11.552423 0.99860346
C -7.6834598 6.1971264 -7.4236093
C -9.221906 5.1347947 -5.955722
C -10.587932 3.9724915 -4.3583145
C -11.74016 2.7452357 -2.6798189
C -8.01971 9.223573 1.7775434
C -9.480869 7.4647036 1.1279649
C -10.763511 5.552378 0.4453169
C -11.8289175 3.5444233 -0.2501104
C -6.5639853 10.462198 0.07553769
C -6.602906 9.913505 -2.2370553
C -6.519575 9.163587 -4.5172014
C -6.316609 8.234891 -6.6960187
C -8.118512 7.334625 -5.2905593
C -8.295737 8.220572 -3.0070195
C -8.28859 8.865129 -0.637273
C -9.641546 6.214253 -3.7233822
C -9.728956 7.0010743 -1.3310428
C -10.906195 4.9625964 -2.0307562
C -8.662 8.556862 0.72480404
C -10.038612 6.712576 0.058136187
C -11.218122 4.746006 -0.6359551
C -12.089022 2.6602838 -1.3168396
C -7.2202983 9.783593 -0.96115714
C -7.1954837 9.131821 -3.2666445
C -7.0543265 8.289034 -5.5049477
C -6.7285557 7.2214966 -7.585056
C -8.408101 6.270596 -6.2256465
C -8.736122 7.291844 -4.0114975
C -8.821266 8.058968 -1.6794469
C -9.865213 5.151449 -4.687882
C -10.133154 6.1030946 -2.3777788
C -11.130198 3.9544148 -3.0425944
C -7.05559 10.164526 1.3626915
C 5.874328 10.864536 0.0533563
C 5.8749423 10.331971 2.370029
C 5.753402 9.598085 4.653655
C 5.513426 8.685116 6.8352447
C -2.5876653 11.093776 4.7731323
C -0.6397518 10.508466 6.003628
C 1.3356771 9.717833 7.1176114
C 3.279087 8.745739 8.081454
C -2.4581344 11.875718 2.339755
C -0.3837308 12.054527 1.192709
C 1.7132224 11.997762 0.02304959
C 3.7694526 11.707103 -1.1337922
C 3.8468194 11.453734 1.3081044
C 1.7195606 11.668416 2.5161595
C -0.4325699 11.569691 3.6949413
C 3.792209 10.838846 3.6849315
C 1.592031 10.898506 4.912004
C 3.598832 9.956148 5.96833
C -1.1883129 11.129818 4.8468275
C 0.77967703 10.437061 6.024651
C 2.7481692 9.554265 7.0668206
C 4.6390104 8.419427 7.908789
C -1.0600923 11.904486 2.436377
C 1.0326023 11.964677 1.2712857
C 3.1185946 11.791485 0.10543858
C 5.11585 11.299366 -1.0527703
C 5.2036247 10.957014 1.281174
C 3.1257188 11.375809 2.5304582
C 0.9810971 11.433756 3.7268693
C 5.144179 10.319152 3.5899677
C 3.0014257 10.625151 4.8661604
C 4.9615054 9.494518 5.8321214
C -3.112851 11.521906 3.5372097
C -8.549884 0.96390116 8.861128
C -9.906529 1.0004555 6.9094114
C -11.075894 1.0254319 4.8118415
C -12.022716 1.0384518 2.6313908
C -8.0927 8.782119 3.151531
C -9.554486 7.019461 2.5138474
C -10.837252 5.107131 1.8308756
C -11.902066 3.1028833 1.1236601
C -6.8465824 8.755364 5.386745
C -7.0908074 6.966615 6.933081
C -7.204089 5.0291853 8.347944
C -7.1830387 3.0015771 9.588709
C -8.8127 3.1417935 7.7564387
C -8.796697 5.1947236 6.4088
C -8.581448 7.095662 4.869004
C -10.142544 3.188355 5.6923313
C -10.0237 5.221048 4.2078376
C -11.199245 3.192943 3.4754736
C -8.812633 7.647885 3.5529149
C -10.189252 5.8032236 2.8876684
C -11.368658 3.8370264 2.192372
C -12.236107 1.7721509 1.4468645
C -7.57843 7.621286 5.766997
C -7.755369 5.7508087 7.253853
C -7.804226 3.7603278 8.586607
C -7.647243 1.6734198 9.678622
C -9.157966 1.7419685 7.8659124
C -9.3028 3.8692365 6.6384697
C -9.186925 5.8508887 5.191391
C -10.424983 1.7704413 5.8327174
C -10.498786 3.8950756 4.493066
C -11.488223 1.7921687 3.6856859
C -7.202705 9.276362 4.1262693
C -8.5871 -0.4807754 8.864548
C -9.944054 -0.45675695 6.912949
C -11.11344 -0.4315105 4.8151317
C -12.059945 -0.4060854 2.634733
C -8.5334215 -8.339073 3.192122
C -9.902754 -6.50652 2.54587
C -11.085453 -4.5339885 1.8537889
C -12.045732 -2.481163 1.1369058
C -7.287333 -8.365857 5.427342
C -7.4390135 -6.559547 6.9652257
C -7.452325 -4.612223 8.370883
C -7.326812 -2.5826077 9.601933
C -8.961722 -2.6474934 7.770102
C -9.051532 -4.7048297 6.4322705
C -8.93461 -6.6215353 4.9014354
C -10.292485 -2.6352186 5.7061634
C -10.278537 -4.678385 4.23134
C -11.348279 -2.5960834 3.4891093
C -9.1939 -7.1675286 3.5881236
C -10.473848 -5.257744 2.9139504
C -11.550696 -3.2367723 2.2090526
C -12.310926 -1.1333987 1.4538485
C -7.959703 -7.1940475 5.8021083
C -8.039999 -5.3098583 7.280062
C -7.9862266 -3.3132703 8.603393
C -7.722049 -1.2319692 9.685421
C -9.234509 -1.2312573 7.8729954
C -9.488672 -3.3541918 6.6555943
C -9.475063 -5.345953 5.217912
C -10.501554 -1.2042551 5.8397894
C -10.684639 -3.3286047 4.5101748
C -11.564722 -1.1812888 3.6928098
C -7.6698933 -8.873925 4.169307
C -6.13855 -3.0581431 10.27208
C -6.253945 -5.0918264 9.04664
C -6.240655 -7.0392804 7.6409383
C -6.0990067 -8.841464 6.0975275
C 2.0407455 -8.119093 9.081025
C 0.043064587 -8.988116 8.1297865
C -1.9704413 -9.681342 7.019288
C -3.9392593 -10.177768 5.7831497
C 2.0266383 -6.044017 10.578865
C 0.01521198 -4.885482 11.091124
C -2.0117505 -3.631359 11.386258
C -3.9927804 -2.3195436 11.455434
C -4.1988945 -4.5536237 10.456108
C -2.1477122 -5.8949924 10.299312
C -0.062395744 -7.1130905 9.853778
C -4.260436 -6.622444 9.134107
C -2.1338642 -7.938185 8.824503
C -4.1717877 -8.527857 7.587423
C 0.6390942 -8.115541 9.083279
C -1.3731699 -8.900144 8.0459795
C -3.3737133 -9.4970045 6.8702908
C -5.2790647 -9.830836 5.5174155
C 0.62502563 -6.0601163 10.567011
C -1.4010228 -4.8468013 10.971873
C -3.4142163 -3.5609064 11.155207
C -5.3313065 -2.188929 11.033687
C -5.539514 -4.2925234 9.983193
C -3.5451386 -5.7330737 10.007333
C -1.4720607 -7.0157976 9.70539
C -5.592029 -6.289533 8.660616
C -3.5314355 -7.7247176 8.569715
C -5.5130033 -8.17324 7.181928
C 2.6227334 -7.1104584 9.875204
C -3.2209625 -1.1690457 11.866253
C -1.2333243 -2.4710991 11.800561
C 0.79357046 -3.7251897 11.5053835
C 2.7985365 -4.893611 10.989512
C 5.207754 3.4586782 10.652079
C 5.2558546 1.0917267 10.865774
C 5.1940365 -1.3091913 10.871468
C 5.0243087 -3.6715724 10.668855
C 3.0478044 4.7952356 10.966599
C 0.98556244 3.7340093 11.487702
C -1.1031287 2.5871923 11.788573
C -3.1551075 1.3893998 11.860208
C -1.1058695 0.05715152 12.10252
C 1.0283846 1.2623657 11.949385
C 3.1566012 2.3975432 11.488444
C 0.96355665 -1.2568326 11.955436
C 3.1550426 -0.05355687 11.639707
C 3.030572 -2.5023427 11.50004
C 4.5411305 2.3032582 11.08371
C 4.535718 -0.09018634 11.191758
C 4.4179044 -2.481282 11.095133
C 4.1747847 -4.796092 10.701645
C 2.4017673 3.6269546 11.395285
C 0.31697437 2.520051 11.80612
C -1.7606316 1.3416427 11.994835
C -3.779258 0.1253868 11.859954
C -1.8258537 -1.1924812 12.000859
C 0.31384835 0.020462971 12.06165
C 2.4500628 1.1933296 11.753974
C 0.18824919 -2.4772973 11.817984
C 2.3868573 -1.2621598 11.759772
C 2.2133899 -3.6916616 11.41261
C 4.4173274 4.6256804 10.679284
C -3.86686 2.5760636 11.443794
C -1.8208536 3.7838547 11.368723
C 0.26780903 4.930621 11.067867
C 2.3360767 5.9818087 10.550343
C -3.4097002 10.394263 5.734295
C -1.4690288 9.803037 6.97308
C 0.5064141 9.012382 8.087143
C 2.4567692 8.046202 9.042806
C -5.6354036 9.17228 6.054806
C -5.869358 7.386954 7.6068563
C -5.9826736 5.4494534 9.021773
C -5.971851 3.4184246 10.256728
C -3.957885 4.8130608 10.433921
C -3.913085 6.8758206 9.102175
C -3.7266555 8.766937 7.5464997
C -1.8404846 6.046313 10.271015
C -1.7215953 8.079185 8.786525
C 0.30470926 7.153388 9.820025
C -2.8797452 9.690525 6.8247404
C -0.912489 8.996998 8.003604
C 1.0569185 8.114946 9.044733
C 2.986271 7.012786 9.84172
C -5.0842347 8.480104 7.1424227
C -5.259941 6.610067 8.629947
C -5.3100533 4.6191893 9.962023
C -5.2103715 2.5125232 11.022474
C -3.2251196 3.7846496 11.137788
C -3.2441921 5.9552717 9.979558
C -3.1283455 7.936792 8.532473
C -1.1483729 4.964469 10.948598
C -1.1078558 7.1281943 9.671816
C 0.93724847 6.0700016 10.5381155
C -4.765697 10.115422 5.470159
